import re
class record:
   def  __init__(self,name,pattern,):
            self.name=name
	    print name
	    self.pattern=re.compile(self.name+pattern)###\S*\s+(\d+)
   def matchLine(self,line):
	    value = 0
            match = self.pattern.search(line)
            if match:
                 value = float(match.group(1))
                 return True, value
	    else:
		return False, value

class header(record):
  def __init__(self):
	record.__init__(self,"---------- Begin Simulation Statistics ----------","")
  def matchLine(self,line):
        match = self.pattern.search(line)
	if match:
		return True
	else:
		return False

class records:
  def __init__(self,name,pattern,core_names):
	self.entries = []
	self.value = []
	for core in core_names:
		self.entries.append(record(core+name,pattern))
		self.value.append(0)
  def matchLine(self,line):
	i = 0
	for entry in self.entries:
		[find,value]= entry.matchLine(line)
		if find:
			self.value[i]=value
		i = i + 1 

class cumRecords(records):
  def __init__(self,name,pattern,core_names):
	records.__init__(self,name,pattern,core_names)
	self.LastValue = [0.0]*len(self.entries)
  def update(self):
	delValue = [0.0]*len(self.entries)
	for i in range(len(self.entries)):
		delValue[i] = self.value[i]-self.LastValue[i]
		self.LastValue[i]=self.value[i]
	return delValue

if __name__ == "__main__":
	mheader =  header()	
	Instruction = cumRecords(".commit.committedInsts","\s+(\d+)",["testsys.switch_cpus"+str(i) for i in range(4)])
	Cycle = cumRecords(".numCycles","\s+(\d+)",["testsys.switch_cpus"+str(i) for i in range(4)])
	idleCycle = cumRecords(".idleCycles","\s+(\d+)",["testsys.switch_cpus"+str(i) for i in range(4)])
	quiesceCycles = cumRecords(".quiesceCycles","\s+(\d+)",["testsys.switch_cpus"+str(i) for i in range(4)])
	file = open("/work/shaoming/gem5-mem/m5out/mem_-64kBMEM_MC3G4.txt")
	for line in file.readlines():
		Instruction.matchLine(line)
		Cycle.matchLine(line)
		idleCycle.matchLine(line)
		quiesceCycles.matchLine(line)
		if mheader.matchLine(line):
			Ins = sum(Instruction.update())
			Cycles = (sum(Cycle.update())+1)
			idle = sum(idleCycle.update())+sum(quiesceCycles.update())
			print float(Ins)
			#print Cycles+idle
			
 	
	
